Version 4
SHEET 1 1012 772
WIRE 416 32 304 32
WIRE 544 32 416 32
WIRE 304 48 304 32
WIRE 544 48 544 32
WIRE 240 64 240 0
WIRE 272 64 240 64
WIRE 496 64 496 -16
WIRE 512 64 496 64
WIRE 352 80 336 80
WIRE 416 80 352 80
WIRE 640 80 576 80
WIRE 800 80 640 80
WIRE 896 80 864 80
WIRE 912 80 896 80
WIRE -160 96 -176 96
WIRE -16 96 -80 96
WIRE 64 96 -16 96
WIRE 160 96 128 96
WIRE 256 96 240 96
WIRE 272 96 256 96
WIRE 416 96 416 80
WIRE 512 96 496 96
WIRE 896 96 896 80
WIRE 304 144 304 112
WIRE 416 144 304 144
WIRE 544 144 544 112
WIRE 544 144 416 144
WIRE 256 192 256 96
WIRE 272 192 256 192
WIRE 352 192 352 80
WIRE 496 208 496 96
WIRE 512 208 496 208
WIRE 640 208 640 80
WIRE 640 208 592 208
WIRE -16 320 -16 96
WIRE -16 320 -160 320
WIRE -16 368 -16 320
WIRE -160 416 -160 320
WIRE 0 464 0 432
WIRE 784 480 784 464
WIRE -160 512 -160 496
WIRE -32 512 -32 432
WIRE -32 512 -160 512
WIRE 928 608 928 560
WIRE 0 624 0 464
WIRE 0 624 -32 624
WIRE -32 672 -32 624
FLAG 784 560 0
FLAG 928 480 0
FLAG 784 464 18V+
FLAG -80 400 18V+
FLAG 416 32 18V-
FLAG 64 400 18V-
FLAG 416 144 18V+
FLAG 928 608 18V-
FLAG -256 96 0
FLAG 496 -16 0
FLAG 240 0 0
FLAG -32 752 0
FLAG -240 512 0
FLAG 80 464 0
FLAG 992 80 0
SYMBOL OpAmps\\OP37 304 144 M180
SYMATTR InstName U1
SYMBOL OpAmps\\OP37 544 144 M180
SYMATTR InstName U2
SYMBOL voltage -160 96 R90
WINDOW 0 -32 56 VBottom 2
WINDOW 3 32 56 VTop 2
WINDOW 123 60 56 VTop 2
WINDOW 39 0 0 Left 0
SYMATTR InstName V1
SYMATTR Value SINE(0 50u 40k)
SYMATTR Value2 AC 1
SYMBOL voltage 784 464 R0
WINDOW 123 0 0 Left 0
WINDOW 39 0 0 Left 0
SYMATTR InstName V2
SYMATTR Value 18
SYMBOL voltage 928 464 R0
WINDOW 123 0 0 Left 0
WINDOW 39 0 0 Left 0
SYMATTR InstName V3
SYMATTR Value 18
SYMBOL res 256 80 R90
WINDOW 0 0 56 VBottom 2
WINDOW 3 32 56 VTop 2
SYMATTR InstName R1
SYMATTR Value 35700
SYMBOL res 368 176 R90
WINDOW 0 0 56 VBottom 2
WINDOW 3 32 56 VTop 2
SYMATTR InstName R2
SYMATTR Value 750k
SYMBOL res 512 80 R90
WINDOW 0 0 56 VBottom 2
WINDOW 3 32 56 VTop 2
SYMATTR InstName R3
SYMATTR Value 150
SYMBOL res 608 192 R90
WINDOW 0 0 56 VBottom 2
WINDOW 3 32 56 VTop 2
SYMATTR InstName rr
SYMATTR Value 150k
SYMBOL res -64 80 R90
WINDOW 0 0 56 VBottom 2
WINDOW 3 32 56 VTop 2
SYMATTR InstName R5
SYMATTR Value 5k
SYMBOL OpAmps\\OP27 -80 400 R270
SYMATTR InstName U3
SYMBOL res -176 400 R0
SYMATTR InstName R7
SYMATTR Value 190k
SYMBOL res -48 656 R0
SYMATTR InstName R8
SYMATTR Value 30
SYMBOL res -144 496 R90
WINDOW 0 0 56 VBottom 2
WINDOW 3 32 56 VTop 2
SYMATTR InstName R9
SYMATTR Value 10k
SYMBOL res 96 448 R90
WINDOW 0 0 56 VBottom 2
WINDOW 3 32 56 VTop 2
SYMATTR InstName R10
SYMATTR Value 10k
SYMBOL cap 128 80 R90
WINDOW 0 0 32 VBottom 2
WINDOW 3 32 32 VTop 2
SYMATTR InstName C1
SYMATTR Value 100n
SYMBOL res 1008 64 R90
WINDOW 0 0 56 VBottom 2
WINDOW 3 32 56 VTop 2
SYMATTR InstName R6
SYMATTR Value 5Meg
SYMBOL cap 864 64 R90
WINDOW 0 0 32 VBottom 2
WINDOW 3 32 32 VTop 2
SYMATTR InstName C2
SYMATTR Value 100n
TEXT -312 712 Left 2 !.ac dec 1000 20 1Meg
