Version 4
SHEET 1 2260 708
WIRE 1408 -64 1408 -80
WIRE 1472 -48 1456 -48
WIRE 1808 -16 1680 -16
WIRE 1456 16 1456 -48
WIRE 1456 16 1408 16
WIRE 1744 32 1744 -112
WIRE 1680 48 1680 -16
WIRE 1712 48 1680 48
WIRE 1808 64 1808 -16
WIRE 1808 64 1776 64
WIRE 1984 64 1808 64
WIRE 2048 64 1984 64
WIRE 1408 80 1136 80
WIRE 1440 80 1408 80
WIRE 1712 80 1440 80
WIRE 1984 80 1984 64
WIRE 2048 80 2048 64
WIRE 2160 80 2112 80
WIRE 1440 144 1392 144
WIRE -336 176 -416 176
WIRE 1392 208 1392 144
WIRE 1392 208 1376 208
WIRE -416 224 -416 176
WIRE -384 224 -416 224
WIRE 1744 224 1744 96
WIRE 1440 240 1440 224
WIRE -480 272 -512 272
WIRE -384 272 -384 224
WIRE -384 272 -400 272
WIRE -368 272 -384 272
WIRE -256 288 -256 176
WIRE -256 288 -304 288
WIRE -512 304 -512 272
WIRE -368 304 -400 304
WIRE -256 304 -256 288
WIRE -240 304 -256 304
WIRE 1056 304 1056 80
WIRE 1056 304 32 304
WIRE -400 320 -400 304
FLAG -208 -96 0
FLAG -112 -176 0
FLAG -208 -176 v+
FLAG -336 256 v+
FLAG -112 -96 v-
FLAG -336 320 v-
FLAG -592 304 0
FLAG -400 320 0
FLAG 1408 -160 0
FLAG 0 480 0
FLAG -160 368 0
FLAG -128 560 0
FLAG -64 144 0
FLAG 1552 -48 0
FLAG 1440 320 0
FLAG 1296 208 0
FLAG 2240 80 0
FLAG 1984 160 0
FLAG 1744 304 0
FLAG 1744 -192 0
SYMBOL voltage -496 304 R90
WINDOW 0 -32 56 VBottom 2
WINDOW 3 32 56 VTop 2
WINDOW 123 60 56 VTop 2
WINDOW 39 0 0 Left 0
SYMATTR InstName V1
SYMATTR Value SINE(0 100m 20k)
SYMATTR Value2 AC 1
SYMBOL OpAmps\\OP37 -336 224 R0
SYMATTR InstName U1
SYMBOL voltage -208 -192 R0
WINDOW 123 0 0 Left 0
WINDOW 39 0 0 Left 0
SYMATTR InstName V2
SYMATTR Value 18
SYMBOL voltage -112 -192 R0
WINDOW 123 0 0 Left 0
WINDOW 39 0 0 Left 0
SYMATTR InstName V3
SYMATTR Value 18
SYMBOL res -384 256 R90
WINDOW 0 0 56 VBottom 2
WINDOW 3 32 56 VTop 2
SYMATTR InstName R2
SYMATTR Value 10k
SYMBOL res -352 192 R270
WINDOW 0 32 56 VTop 2
WINDOW 3 0 56 VBottom 2
SYMATTR InstName R3
SYMATTR Value 100k
SYMBOL diode 1424 80 R180
WINDOW 0 24 64 Left 2
WINDOW 3 24 0 Left 2
SYMATTR InstName D3
SYMATTR Value 1N4148
SYMBOL voltage 1408 -64 R180
WINDOW 0 24 96 Left 2
WINDOW 3 24 16 Left 2
WINDOW 123 0 0 Left 0
WINDOW 39 0 0 Left 0
SYMATTR InstName V5
SYMATTR Value 3
SYMBOL res 1152 64 R90
WINDOW 0 0 56 VBottom 2
WINDOW 3 32 56 VTop 2
SYMATTR InstName R8
SYMATTR Value 20k
SYMBOL Switches\\ADG411 -64 352 R0
SYMATTR InstName U3
SYMBOL voltage -64 240 R180
WINDOW 0 24 96 Left 2
WINDOW 3 24 16 Left 2
WINDOW 123 0 0 Left 0
WINDOW 39 0 0 Left 0
SYMATTR InstName V7
SYMATTR Value 3
SYMBOL voltage -128 576 R180
WINDOW 0 24 96 Left 2
WINDOW 3 24 16 Left 2
WINDOW 123 0 0 Left 0
WINDOW 39 0 0 Left 0
SYMATTR InstName V8
SYMATTR Value 3
SYMBOL res -144 288 R90
WINDOW 0 0 56 VBottom 2
WINDOW 3 32 56 VTop 2
SYMATTR InstName R9
SYMATTR Value 2k
SYMBOL res 1568 -64 R90
WINDOW 0 0 56 VBottom 2
WINDOW 3 32 56 VTop 2
SYMATTR InstName R10
SYMATTR Value 1k
SYMBOL res 1424 32 R180
WINDOW 0 36 76 Left 2
WINDOW 3 36 40 Left 2
SYMATTR InstName R11
SYMATTR Value 9k
SYMBOL diode 1456 144 R180
WINDOW 0 24 64 Left 2
WINDOW 3 24 0 Left 2
SYMATTR InstName D4
SYMATTR Value 1N4148
SYMBOL voltage 1440 336 R180
WINDOW 0 24 96 Left 2
WINDOW 3 24 16 Left 2
WINDOW 123 0 0 Left 0
WINDOW 39 0 0 Left 0
SYMATTR InstName V9
SYMATTR Value 3
SYMBOL res 1280 224 R270
WINDOW 0 32 56 VTop 2
WINDOW 3 0 56 VBottom 2
SYMATTR InstName R12
SYMATTR Value 1k
SYMBOL res 1424 128 R0
SYMATTR InstName R13
SYMATTR Value 9k
SYMBOL cap 2112 64 R90
WINDOW 0 0 32 VBottom 2
WINDOW 3 32 32 VTop 2
SYMATTR InstName C1
SYMATTR Value 0.47µ
SYMBOL res 1968 64 R0
SYMATTR InstName R4
SYMATTR Value 1k
SYMBOL res 2256 64 R90
WINDOW 0 0 56 VBottom 2
WINDOW 3 32 56 VTop 2
SYMATTR InstName R14
SYMATTR Value 30k
SYMBOL voltage 1744 -96 R180
WINDOW 0 24 96 Left 2
WINDOW 3 24 16 Left 2
WINDOW 123 0 0 Left 0
WINDOW 39 0 0 Left 0
SYMATTR InstName V4
SYMATTR Value 3
SYMBOL voltage 1744 320 R180
WINDOW 0 24 96 Left 2
WINDOW 3 24 16 Left 2
WINDOW 123 0 0 Left 0
WINDOW 39 0 0 Left 0
SYMATTR InstName V6
SYMATTR Value 3
SYMBOL OpAmps\\UniversalOpamp2 1744 64 R0
SYMATTR InstName U2
TEXT -632 424 Left 2 !.tran 0 11.5m 10m
